tse_to_opendss/examples/Benchmark Systems/IEEE/IEEE 13 Bus - Distribution/ieee_13bus Target files/dss/data/ieee_13bus_VLN_Node.Txt

LINE-GROUND and LINE-LINE VOLTAGES BY BUS & NODE

Bus     Node    VLN (kV)   Angle      pu     Base kV    Node-Node   VLL (kV)  Angle      pu

BUS_650 1       2.4015 /_    0.0   0.99989     4.160        1-2     4.1599 /_   30.0   0.99997
   -    2       2.4023 /_ -120.0    1.0002     4.160        2-3     4.1599 /_  -90.0   0.99997
   -    3       2.4013 /_  120.0   0.99981     4.160        3-1     4.1599 /_  150.0   0.99997
BUS_REG 1        2.538 /_   -0.4    1.0567     4.160        1-2     4.3901 /_   29.8    1.0553
   -    2       2.5388 /_ -120.1    1.0571     4.160        2-3     4.3955 /_  -90.1    1.0566
   -    3       2.5364 /_  119.9    1.0561     4.160        3-1     4.4009 /_  149.8    1.0579
BUS_633 1       2.3775 /_   -2.8   0.98988     4.160        1-2     4.2113 /_   28.5    1.0123
   -    2       2.5052 /_ -122.0    1.0431     4.160        2-3     4.3099 /_  -93.1     1.036
   -    3       2.4379 /_  116.7     1.015     4.160        3-1     4.1593 /_  146.5   0.99982
BUS_634 1      0.26792 /_   -3.5   0.96676     0.480        1-2    0.47536 /_   28.0   0.99034
   -    2      0.28374 /_ -122.4    1.0239     0.480        2-3    0.48814 /_  -93.6     1.017
   -    3      0.27611 /_  116.2   0.99634     0.480        3-1    0.47035 /_  145.9   0.97989
BUS_671 1       2.2706 /_   -5.7   0.94538     4.160        1-2     4.0941 /_   27.8   0.98415
   -    2       2.5305 /_ -122.6    1.0536     4.160        2-3     4.3219 /_  -95.3    1.0389
   -    3        2.378 /_  114.0   0.99009     4.160        3-1     4.0202 /_  143.4   0.96639
BUS_692 1       2.2703 /_   -5.7   0.94527     4.160        1-2     4.0939 /_   27.8    0.9841
   -    2       2.5305 /_ -122.6    1.0536     4.160        2-3     4.3218 /_  -95.3    1.0389
   -    3       2.3778 /_  114.0   0.99001     4.160        3-1     4.0198 /_  143.4    0.9663
BUS_632 1       2.3844 /_   -2.7   0.99277     4.160        1-2     4.2215 /_   28.5    1.0148
   -    2         2.51 /_ -121.9    1.0451     4.160        2-3     4.3203 /_  -93.0    1.0385
   -    3        2.444 /_  116.7    1.0176     4.160        3-1     4.1694 /_  146.6    1.0023
BUS_684 1       2.2662 /_   -5.7   0.94356     4.160
   -    3       2.3732 /_  113.9   0.98811     4.160        3-1     4.0108 /_  143.3   0.96412
BUS_645 2       2.4869 /_ -122.1    1.0355     4.160        2-3     4.2917 /_  -93.0    1.0317
   -    3       2.4394 /_  116.7    1.0157     4.160
BUS_646 2       2.4827 /_ -122.2    1.0337     4.160        2-3     4.2812 /_  -93.0    1.0291
   -    3       2.4344 /_  116.8    1.0136     4.160
BUS_652 1       2.2534 /_   -5.6   0.93824     4.160
BUS_611 3       2.3686 /_  113.8   0.98617     4.160
BUS_675 1       2.2561 /_   -5.9   0.93935     4.160        1-2     4.0847 /_   27.7   0.98191
   -    2       2.5356 /_ -122.8    1.0557     4.160        2-3     4.3189 /_  -95.4    1.0382
   -    3       2.3733 /_  114.0   0.98814     4.160        3-1     4.0087 /_  143.2   0.96362
BUS_680 1       2.2706 /_   -5.7   0.94538     4.160        1-2     4.0941 /_   27.8   0.98415
   -    2       2.5305 /_ -122.6    1.0536     4.160        2-3     4.3219 /_  -95.3    1.0389
   -    3        2.378 /_  114.0   0.99009     4.160        3-1     4.0202 /_  143.4   0.96639
