tse_to_opendss/examples/Benchmark Systems/IEEE/IEEE 13 Bus - Distribution/ieee_13bus Target files/dss/output/ieee_13bus_Power_elem_kVA.txt

CIRCUIT ELEMENT POWER FLOW

(Power Flow into element from indicated Bus)

Power Delivery Elements

  Bus   Phase     kW     +j   kvar         kVA         PF

ELEMENT = "Vsource.V1"
BUS_650     1     -1177.7 +j   -650.5     1345.4       0.8753
BUS_650     2     -1037.7 +j   -407.2     1114.7       0.9309
BUS_650     3     -1301.5 +j   -705.3     1480.3       0.8792
   TERMINAL TOTAL -3516.9 +j  -1763.0     3934.1       0.8940
BUS_650     0         0.0 +j      0.0        0.0       1.0000
BUS_650     0        -0.0 +j      0.0        0.0       1.0000
BUS_650     0         0.0 +j     -0.0        0.0       1.0000
   TERMINAL TOTAL     0.0 +j      0.0        0.0       1.0000

ELEMENT = "Transformer.REGC"
BUS_650     1      1177.7 +j    650.5     1345.4       0.8753
BUS_650     2       399.9 +j    809.6      903.0       0.4429
BUS_650     3       465.5 +j    883.2      998.4       0.4662
BUS_650     0        -0.0 +j      0.0        0.0       1.0000
   TERMINAL TOTAL  2043.1 +j   2343.3     3108.9       0.6572
BUS_REG     1     -1175.3 +j   -639.7     1338.1       0.8783
BUS_REG     2      -398.8 +j   -804.7      898.1       0.4440
BUS_REG     3      -464.1 +j   -877.2      992.4       0.4677
BUS_REG     0         0.0 +j      0.0        0.0       1.0000
   TERMINAL TOTAL -2038.2 +j  -2321.6     3089.4       0.6598

ELEMENT = "Transformer.XFM1-1"
BUS_633     1       151.2 +j    108.1      185.9       0.8134
BUS_633     2       127.4 +j     97.2      160.2       0.7950
BUS_633     3       120.6 +j     92.0      151.7       0.7950
BUS_633     0         0.0 +j     -0.0        0.0       1.0000
   TERMINAL TOTAL   399.2 +j    297.3      497.8       0.8020
BUS_634     1      -148.9 +j   -103.9      181.6       0.8200
BUS_634     2      -125.8 +j    -94.4      157.3       0.8000
BUS_634     3      -119.1 +j    -89.3      148.9       0.8000
BUS_634     0         0.0 +j      0.0        0.0       1.0000
   TERMINAL TOTAL  -393.8 +j   -287.6      487.6       0.8076

ELEMENT = "Transformer.REGB"
BUS_650     2       212.6 +j   -134.1      251.4      -0.8457
BUS_650     2       212.6 +j   -134.1      251.4      -0.8457
BUS_650     3       278.7 +j    -59.3      284.9      -0.9781
BUS_650     0         0.0 +j      0.0        0.0       1.0000
   TERMINAL TOTAL   703.9 +j   -327.6      776.4      -0.9066
BUS_REG     2      -212.3 +j    134.5      251.4      -0.8448
BUS_REG     2      -212.3 +j    134.5      251.4      -0.8448
BUS_REG     3      -278.4 +j     59.8      284.8      -0.9777
BUS_REG     0        -0.0 +j      0.0        0.0       1.0000
   TERMINAL TOTAL  -703.1 +j    328.8      776.2      -0.9058

ELEMENT = "Transformer.REGA"
BUS_650     3       278.7 +j    -59.3      284.9      -0.9781
BUS_650     2       212.6 +j   -134.1      251.4      -0.8457
BUS_650     3       278.7 +j    -59.3      284.9      -0.9781
BUS_650     0         0.0 +j      0.0        0.0       1.0000
   TERMINAL TOTAL   770.0 +j   -252.7      810.4      -0.9501
BUS_REG     3      -278.4 +j     59.8      284.8      -0.9777
BUS_REG     2      -212.3 +j    134.5      251.4      -0.8448
BUS_REG     3      -278.4 +j     59.8      284.8      -0.9777
BUS_REG     0         0.0 +j     -0.0        0.0       1.0000
   TERMINAL TOTAL  -769.2 +j    254.1      810.1      -0.9495

ELEMENT = "Capacitor.CAP_675"
BUS_675     1         0.0 +j   -176.7      176.7       1.0000
BUS_675     2         0.0 +j   -222.9      222.9       1.0000
BUS_675     3         0.0 +j   -195.2      195.2       1.0000
   TERMINAL TOTAL     0.0 +j   -594.8      594.8       1.0000
BUS_675     0        -0.0 +j      0.0        0.0       1.0000
BUS_675     0         0.0 +j     -0.0        0.0       1.0000
BUS_675     0         0.0 +j      0.0        0.0       1.0000
   TERMINAL TOTAL     0.0 +j      0.0        0.0       1.0000

ELEMENT = "Capacitor.CAP_611"
BUS_611     3         0.0 +j    -97.2       97.2       1.0000
   TERMINAL TOTAL     0.0 +j    -97.2       97.2       1.0000

ELEMENT = "Line.LINE_632633"
BUS_632     1       151.6 +j    108.6      186.5       0.8128
BUS_632     2       127.5 +j     97.5      160.5       0.7945
BUS_632     3       120.9 +j     92.3      152.1       0.7950
   TERMINAL TOTAL   400.0 +j    298.4      499.0       0.8016
BUS_633     1      -151.2 +j   -108.1      185.9       0.8134
BUS_633     2      -127.4 +j    -97.2      160.2       0.7950
BUS_633     3      -120.6 +j    -92.0      151.7       0.7950
   TERMINAL TOTAL  -399.2 +j   -297.3      497.8       0.8020

ELEMENT = "Line.LINE_684611"
BUS_684     3         0.4 +j      0.4        0.5       0.7022
   TERMINAL TOTAL     0.4 +j      0.4        0.5       0.7022

ELEMENT = "Line.LINE_671684"
BUS_671     1       113.7 +j     76.2      136.9       0.8307
BUS_671     3       165.1 +j    -17.0      166.0      -0.9948
   TERMINAL TOTAL   278.8 +j     59.2      285.1       0.9782
BUS_684     1      -113.5 +j    -76.0      136.6       0.8310
BUS_684     3      -164.8 +j     17.2      165.7      -0.9946
   TERMINAL TOTAL  -278.3 +j    -58.8      284.4       0.9784

ELEMENT = "Line.SWITCH"
BUS_671     1       467.2 +j    108.6      479.6       0.9740
BUS_671     2        76.1 +j   -155.6      173.2      -0.4395
BUS_671     3       407.4 +j     36.6      409.1       0.9960
   TERMINAL TOTAL   950.8 +j    -10.4      950.8      -0.9999
BUS_692     1      -467.1 +j   -108.5      479.6       0.9741
BUS_692     2       -76.1 +j    155.6      173.2      -0.4394
BUS_692     3      -407.4 +j    -36.6      409.1       0.9960
   TERMINAL TOTAL  -950.7 +j     10.5      950.7      -0.9999

ELEMENT = "Line.LINE_650632"
BUS_REG     1      1175.3 +j    639.7     1338.1       0.8783
BUS_REG     2      1035.8 +j    401.2     1110.8       0.9325
BUS_REG     3      1299.4 +j    697.8     1474.9       0.8810
   TERMINAL TOTAL  3510.5 +j   1738.7     3917.5       0.8961
BUS_632     1     -1128.4 +j   -554.8     1257.4       0.8974
BUS_632     2     -1036.2 +j   -363.8     1098.2       0.9435
BUS_632     3     -1287.7 +j   -601.0     1421.0       0.9062
   TERMINAL TOTAL -3452.4 +j  -1519.6     3772.0       0.9153

ELEMENT = "Line.LINE_684652"
BUS_684     1         0.7 +j      0.3        0.8       0.9344
   TERMINAL TOTAL     0.7 +j      0.3        0.8       0.9344

ELEMENT = "Line.LINE_671680"
BUS_671     1        -0.0 +j     -0.0        0.0       0.1048
BUS_671     2         0.0 +j     -0.0        0.0      -0.1407
BUS_671     3        -0.0 +j     -0.0        0.0       0.0578
   TERMINAL TOTAL     0.0 +j     -0.0        0.0      -0.0000
BUS_680     1         0.0 +j     -0.0        0.0      -0.0110
BUS_680     2         0.0 +j      0.0        0.0       0.1049
BUS_680     3        -0.0 +j      0.0        0.0      -0.4071
   TERMINAL TOTAL    -0.0 +j      0.0        0.0      -0.2371

ELEMENT = "Line.LINE_645646"
BUS_645     2       163.2 +j      1.4      163.2       1.0000
BUS_645     3        81.8 +j    137.6      160.0       0.5109
   TERMINAL TOTAL   244.9 +j    138.9      281.6       0.8698
BUS_646     2      -162.9 +j     -1.1      162.9       1.0000
BUS_646     3       -81.5 +j   -137.4      159.7       0.5102
   TERMINAL TOTAL  -244.4 +j   -138.5      280.9       0.8700

ELEMENT = "Line.LINE_632645"
BUS_632     2       349.2 +j    136.4      374.9       0.9315
BUS_632     3        82.0 +j    137.8      160.3       0.5112
   TERMINAL TOTAL   431.2 +j    274.2      511.0       0.8438
BUS_645     2      -346.4 +j   -134.0      371.5       0.9326
BUS_645     3       -81.8 +j   -137.6      160.0       0.5109
   TERMINAL TOTAL  -428.2 +j   -271.6      507.1       0.8444

ELEMENT = "Line.LINE_692675"
BUS_692     1       430.6 +j     -5.8      430.7      -0.9999
BUS_692     2        76.1 +j   -155.6      173.2      -0.4394
BUS_692     3       284.6 +j     10.4      284.8       0.9993
   TERMINAL TOTAL   791.3 +j   -151.0      805.6      -0.9823
BUS_675     1      -427.9 +j      7.5      428.0      -0.9998
BUS_675     2       -75.8 +j    156.1      173.5      -0.4370
BUS_675     3      -284.0 +j    -10.4      284.2       0.9993
   TERMINAL TOTAL  -787.8 +j    153.2      802.5      -0.9816

ELEMENT = "Line.LINE_632671"
BUS_632     1       968.5 +j    441.2     1064.3       0.9100
BUS_632     2       523.3 +j    109.4      534.6       0.9788
BUS_632     3      1024.6 +j    335.2     1078.0       0.9504
   TERMINAL TOTAL  2516.4 +j    885.8     2667.8       0.9433
BUS_671     1      -943.0 +j   -372.1     1013.8       0.9302
BUS_671     2      -528.9 +j   -104.1      539.0       0.9812
BUS_671     3     -1011.0 +j   -279.4     1048.9       0.9639
   TERMINAL TOTAL -2482.9 +j   -755.5     2595.3       0.9567

= = = = = = = = = = = = = = = = = = =  = = = = = = = = = = =  = =

Power Conversion Elements

  Bus   Phase     kW   +j  kvar         kVA         PF

ELEMENT = "Load.LOAD 634-LOAD_634A"
BUS_634     1     148.9 +j  103.9      181.6       0.8200
BUS_634     0       0.0 +j   -0.0        0.0       1.0000
  TERMINAL TOTAL    148.9 +j    103.9      181.6       0.8200

ELEMENT = "Load.DIST LOAD 671-LOAD_D671B"
BUS_671     2      36.8 +j   20.8       42.3       0.8700
BUS_671     0       0.0 +j    0.0        0.0       1.0000
  TERMINAL TOTAL     36.8 +j     20.8       42.3       0.8700

ELEMENT = "Load.LOAD 634-LOAD_634C"
BUS_634     3     119.1 +j   89.3      148.9       0.8000
BUS_634     0      -0.0 +j    0.0        0.0       1.0000
  TERMINAL TOTAL    119.1 +j     89.3      148.9       0.8000

ELEMENT = "Load.LOAD 675-LOAD_675A"
BUS_675     1     427.9 +j  169.1      460.1       0.9300
BUS_675     0       0.0 +j   -0.0        0.0       1.0000
  TERMINAL TOTAL    427.9 +j    169.1      460.1       0.9300

ELEMENT = "Load.LOAD 634-LOAD_634B"
BUS_634     2     125.8 +j   94.4      157.3       0.8000
BUS_634     0       0.0 +j    0.0        0.0       1.0000
  TERMINAL TOTAL    125.8 +j     94.4      157.3       0.8000

ELEMENT = "Load.LOAD 671-LOAD_671A"
BUS_671     1     115.5 +j  203.6      234.1       0.4935
BUS_671     3     245.0 +j    0.7      245.0       1.0000
  TERMINAL TOTAL    360.5 +j    204.3      414.4       0.8700

ELEMENT = "Load.DIST LOAD 671-LOAD_D671C"
BUS_671     3      57.0 +j   33.8       66.3       0.8600
BUS_671     0      -0.0 +j    0.0        0.0       1.0000
  TERMINAL TOTAL     57.0 +j     33.8       66.3       0.8600

ELEMENT = "Load.DIST LOAD 632-LOAD_D671B"
BUS_632     2      36.2 +j   20.5       41.6       0.8700
BUS_632     0       0.0 +j    0.0        0.0       1.0000
  TERMINAL TOTAL     36.2 +j     20.5       41.6       0.8700

ELEMENT = "Load.LOAD 652-LOAD_652"
BUS_652     1     112.8 +j   75.8      135.9       0.8300
BUS_652     0       0.0 +j   -0.0        0.0       1.0000
  TERMINAL TOTAL    112.8 +j     75.8      135.9       0.8300

ELEMENT = "Load.DIST LOAD 632-LOAD_D671A"
BUS_632     1       8.4 +j    5.0        9.7       0.8600
BUS_632     0       0.0 +j   -0.0        0.0       1.0000
  TERMINAL TOTAL      8.4 +j      5.0        9.7       0.8600

ELEMENT = "Load.DIST LOAD 671-LOAD_D671A"
BUS_671     1       8.8 +j    0.0        8.8       1.0000
BUS_671     0       0.0 +j   -0.0        0.0       1.0000
  TERMINAL TOTAL      8.8 +j      0.0        8.8       1.0000

ELEMENT = "Load.LOAD 675-LOAD_675B"
BUS_675     2      75.8 +j   66.9      101.1       0.7500
BUS_675     0       0.0 +j    0.0        0.0       1.0000
  TERMINAL TOTAL     75.8 +j     66.9      101.1       0.7500

ELEMENT = "Load.LOAD 671-LOAD_671C"
BUS_671     3     136.4 +j  225.2      263.3       0.5179
BUS_671     2     280.0 +j   10.8      280.3       0.9993
  TERMINAL TOTAL    416.4 +j    236.0      478.6       0.8700

ELEMENT = "Load.LOAD 611-LOAD_611"
BUS_611     3     164.4 +j   79.6      182.7       0.9000
BUS_611     0      -0.0 +j    0.0        0.0       1.0000
  TERMINAL TOTAL    164.4 +j     79.6      182.7       0.9000

ELEMENT = "Load.LOAD 675-LOAD_675C"
BUS_675     3     284.0 +j  205.6      350.7       0.8100
BUS_675     0      -0.0 +j    0.0        0.0       1.0000
  TERMINAL TOTAL    284.0 +j    205.6      350.7       0.8100

ELEMENT = "Load.LOAD 645-LOAD_645"
BUS_645     2     183.3 +j  132.7      226.3       0.8100
BUS_645     0       0.0 +j    0.0        0.0       1.0000
  TERMINAL TOTAL    183.3 +j    132.7      226.3       0.8100

ELEMENT = "Load.LOAD 646-LOAD_646"
BUS_646     3      81.5 +j  137.4      159.7       0.5102
BUS_646     2     162.9 +j    1.1      162.9       1.0000
  TERMINAL TOTAL    244.4 +j    138.5      280.9       0.8700

ELEMENT = "Load.LOAD 671-LOAD_671B"
BUS_671     2     135.9 +j  228.1      265.5       0.5119
BUS_671     1     237.8 +j  -16.3      238.3      -0.9977
  TERMINAL TOTAL    373.7 +j    211.8      429.5       0.8700

ELEMENT = "Load.LOAD 692-LOAD_692"
BUS_692     1      36.5 +j  114.3      120.0       0.3040
BUS_692     3     122.8 +j   26.2      125.6       0.9780
  TERMINAL TOTAL    159.3 +j    140.5      212.5       0.7500

ELEMENT = "Load.DIST LOAD 632-LOAD_D671C"
BUS_632     3      60.2 +j   35.7       70.1       0.8600
BUS_632     0      -0.0 +j    0.0        0.0       1.0000
  TERMINAL TOTAL     60.2 +j     35.7       70.1       0.8600


Total Circuit Losses =  113.1 +j  390.7
