tse_to_opendss/examples/Benchmark Systems/IEEE/IEEE 13 Bus - Distribution/ieee_13bus Target files/dss/output/ieee_13bus_VLN_Node.Txt

LINE-GROUND and LINE-LINE VOLTAGES BY BUS & NODE

Bus     Node    VLN (kV)   Angle      pu     Base kV    Node-Node   VLL (kV)  Angle      pu

BUS_650 1       2.4015 /_    0.0   0.99989     4.160        1-2     4.1599 /_   30.0   0.99997
   -    2       2.4023 /_ -120.0    1.0002     4.160        2-3     4.1599 /_  -90.0   0.99997
   -    3       2.4013 /_  120.0    0.9998     4.160        3-1     4.1599 /_  150.0   0.99997
BUS_REG 1       2.5381 /_   -0.4    1.0568     4.160        1-2     4.3902 /_   29.8    1.0553
   -    2       2.5388 /_ -120.1    1.0571     4.160        2-3     4.3955 /_  -90.1    1.0566
   -    3       2.5364 /_  119.9    1.0561     4.160        3-1      4.401 /_  149.8    1.0579
BUS_633 1       2.3781 /_   -2.8   0.99013     4.160        1-2     4.2114 /_   28.5    1.0124
   -    2       2.5053 /_ -122.0    1.0431     4.160        2-3       4.31 /_  -93.1    1.0361
   -    3       2.4377 /_  116.7     1.015     4.160        3-1     4.1599 /_  146.5   0.99999
BUS_634 1      0.26799 /_   -3.5   0.96701     0.480        1-2    0.47538 /_   28.0   0.99037
   -    2      0.28375 /_ -122.4    1.0239     0.480        2-3    0.48815 /_  -93.6     1.017
   -    3      0.27609 /_  116.2   0.99627     0.480        3-1    0.47043 /_  145.9   0.98006
BUS_671 1       2.2718 /_   -5.7    0.9459     4.160        1-2     4.0943 /_   27.7   0.98421
   -    2       2.5307 /_ -122.6    1.0537     4.160        2-3     4.3221 /_  -95.2     1.039
   -    3       2.3776 /_  114.0   0.98994     4.160        3-1     4.0215 /_  143.4   0.96671
BUS_675 1       2.2574 /_   -6.0   0.93987     4.160        1-2      4.085 /_   27.7   0.98196
   -    2       2.5358 /_ -122.8    1.0558     4.160        2-3     4.3191 /_  -95.4    1.0383
   -    3       2.3729 /_  114.0   0.98799     4.160        3-1       4.01 /_  143.2   0.96394
BUS_632 1        2.385 /_   -2.8   0.99303     4.160        1-2     4.2216 /_   28.5    1.0148
   -    2       2.5101 /_ -121.9    1.0451     4.160        2-3     4.3204 /_  -93.0    1.0385
   -    3       2.4438 /_  116.7    1.0175     4.160        3-1     4.1701 /_  146.6    1.0024
BUS_652 1       2.2547 /_   -5.7   0.93875     4.160
BUS_611 3       2.3682 /_  113.8   0.98603     4.160
BUS_645 2        2.487 /_ -122.1    1.0355     4.160        2-3     4.2918 /_  -93.0    1.0317
   -    3       2.4393 /_  116.7    1.0156     4.160
BUS_646 2       2.4828 /_ -122.2    1.0338     4.160        2-3     4.2813 /_  -93.0    1.0292
   -    3       2.4343 /_  116.8    1.0135     4.160
BUS_692 1       2.2716 /_   -5.7    0.9458     4.160        1-2     4.0941 /_   27.7   0.98415
   -    2       2.5307 /_ -122.6    1.0537     4.160        2-3      4.322 /_  -95.2    1.0389
   -    3       2.3774 /_  114.0   0.98987     4.160        3-1     4.0211 /_  143.4   0.96662
BUS_684 1       2.2675 /_   -5.7   0.94408     4.160
   -    3       2.3729 /_  113.9   0.98797     4.160        3-1     4.0121 /_  143.3   0.96444
BUS_680 1       2.2718 /_   -5.7    0.9459     4.160        1-2     4.0943 /_   27.7   0.98421
   -    2       2.5307 /_ -122.6    1.0537     4.160        2-3     4.3221 /_  -95.2     1.039
   -    3       2.3776 /_  114.0   0.98994     4.160        3-1     4.0215 /_  143.4   0.96671
